Version 4
SHEET 1 880 680
WIRE 128 80 -64 80
WIRE 224 80 128 80
WIRE 416 80 304 80
WIRE 592 80 416 80
WIRE 704 80 592 80
WIRE -64 112 -64 80
WIRE 128 128 128 80
WIRE 416 128 416 80
WIRE 592 128 592 80
WIRE -64 224 -64 192
WIRE 128 224 128 192
WIRE 128 224 -64 224
WIRE 416 224 416 192
WIRE 416 224 128 224
WIRE 592 224 592 192
WIRE 592 224 416 224
WIRE 128 240 128 224
FLAG 128 240 0
SYMBOL cap 112 128 R0
SYMATTR InstName C2
SYMATTR Value 1µ
SYMATTR SpiceLine V=25 Irms=5.18 Rser=0.0171188 Lser=0
SYMBOL cap 400 128 R0
SYMATTR InstName C3
SYMATTR Value 0.47µ
SYMATTR SpiceLine V=25 Irms=3.94 Rser=0.0265693 Lser=0 mfg="KEMET" pn="C0603C474K3PAC" type="X5R"
SYMBOL ind 208 96 R270
WINDOW 0 32 56 VTop 2
WINDOW 3 5 56 VBottom 2
SYMATTR InstName L1
SYMATTR Value 470µ
SYMATTR SpiceLine Ipk=2 Rser=0.4 Rpar=0 Cpar=0
SYMBOL voltage -64 96 R0
WINDOW 123 24 152 Left 2
WINDOW 39 24 124 Left 2
SYMATTR InstName V1
SYMATTR Value 24
SYMATTR Value2 AC 24 0
SYMATTR SpiceLine Rser=0.25
SYMBOL polcap 576 128 R0
WINDOW 3 24 56 Left 2
SYMATTR InstName C1
SYMATTR Value 22µ
SYMATTR Description Capacitor
SYMATTR Type cap
SYMATTR SpiceLine V=6.3 Irms=3.10529 Rser=0.028 Lser=0
TEXT -98 264 Left 2 !.ac lin 1000 100 50k
